<?xml version="1.0" encoding="UTF-8"?>

<configuration>
    <input>
       <net-file value="3x3.net.xml"/>
        <route-files value="3x3.rou.xml"/>
    </input>
	<time>
        <begin value="4000"/>
        <end value="5000"/>
    </time>
    <time-to-teleport value="-1"/> <!-- If the value is not positive, teleporting due to grid-lock is disabled.-->
</configuration>
